kpg193_v2_0_2030/network/m/KPG193_ver2_0_2030.m
function mpc = KPG193_ver2_0_2030
% Generated from KPG193_ver1_6 ACOPF hourly result.
% Bus voltage angle Va is in degrees, matching MATPOWER case format.
mpc.version = '2';

%-----  Power Flow Data  -----%%
% system MVA base
mpc.baseMVA = 100;

% bus data
%	bus_i	type	Pd	Qd	Gs	Bs	area	Vm	Va	baseKV	zone	Vmax	Vmin
mpc.bus = [
	1	1	67.2704613624	6.72704613624	0	0	1	1.03810714481	-10.6836515151	154	1	1.1	0.9	;
	2	1	81.3050198336	8.13050198336	0	0	1	1.04369795122	-12.5237423239	345	1	1.05	0.95	;
	3	1	372.896421414	37.2896421414	0	0	1	1.04430072128	-12.468597766	345	1	1.05	0.95	;
	4	1	86.4883485314	8.64883485313	0	0	1	1.0444433259	-12.9497020934	345	1	1.05	0.95	;
	5	1	74.0924812648	9.76641656418	0	0	1	1.03923137374	-3.01619847778	154	1	1.1	0.9	;
	6	1	83.0966840831	8.30966840831	0	0	1	1.0423759257	-14.1443803733	154	1	1.1	0.9	;
	7	1	560.680930036	56.0695403886	0	0	1	1.04556919671	-13.0358692629	345	1	1.05	0.95	;
	8	1	1279.88083064	127.988083064	0	0	1	1.04186499409	-13.9987747232	345	1	1.05	0.95	;
	9	1	324.026505398	32.4026505398	0	0	1	1.04603710693	-13.4298460243	154	1	1.1	0.9	;
	10	2	711.873446839	71.1873446839	0	0	1	1.04249747085	-13.9280535321	154	1	1.1	0.9	;
	11	1	589.631534558	58.9631534558	0	0	1	1.04259446073	-14.1690552064	345	1	1.05	0.95	;
	12	1	323.537896024	32.3537896024	0	0	1	1.04585533356	-13.4488608281	154	1	1.1	0.9	;
	13	1	348.717136153	34.8717136153	0	0	1	1.04616567739	-13.4293171425	154	1	1.1	0.9	;
	14	1	373.973346017	37.3973346017	0	0	1	1.04551926143	-13.4840365231	345	1	1.05	0.95	;
	15	1	110.628605864	11.0628605864	0	0	1	1.04687385663	-13.3445969053	154	1	1.1	0.9	;
	16	1	476.592393027	47.6592393027	0	0	1	1.0472216198	-13.3088035025	345	1	1.05	0.95	;
	17	1	513.913445771	51.3913445771	0	0	1	1.04663815558	-13.4002959093	345	1	1.05	0.95	;
	18	1	536.546964446	53.6546964446	0	0	1	1.04631015988	-13.4386971079	345	1	1.05	0.95	;
	19	2	504.899518772	50.512347319	0	0	1	1.04551330602	-13.484358383	345	1	1.05	0.95	;
	20	2	256.141126735	26.0855352143	0	0	1	1.0439143589	-12.8826865701	154	1	1.1	0.9	;
	21	2	776.372210576	78.7376990639	0	0	1	1.04430462832	-13.934715974	345	1	1.05	0.95	;
	22	1	635.8256843	63.58256843	0	0	1	1.04731083395	-13.272934876	345	1	1.05	0.95	;
	23	1	372.079731264	37.2079731264	0	0	1	1.0446282358	-13.5387598036	345	1	1.05	0.95	;
	24	1	608.729948481	60.8729948481	0	0	1	1.04421300973	-13.7611418884	154	1	1.1	0.9	;
	25	1	492.263372936	49.2263372936	0	0	1	1.04410527805	-13.7788123709	154	1	1.1	0.9	;
	26	2	581.012517331	58.1012517331	0	0	1	1.044582529	-13.7033262453	345	1	1.05	0.95	;
	27	2	-149.252759297	3.30954650351	0	0	1	1.04529901058	-13.4468935629	345	1	1.05	0.95	;
	28	1	131.722150596	13.1722150596	0	0	1	1.04999889294	-9.17826994603	765	1	1.05	0.95	;
	29	1	640.5890563	64.059215998	0	0	1	1.0453839064	-13.32348093	345	1	1.05	0.95	;
	30	1	497.728006823	49.7728006823	0	0	1	1.04532696496	-13.3264449984	154	1	1.1	0.9	;
	31	1	404.785637687	40.4796140271	0	0	1	1.04386973283	-13.5974638701	154	1	1.1	0.9	;
	32	1	166.898622361	16.6898622361	0	0	1	1.04437719522	-13.5593230148	345	1	1.05	0.95	;
	33	1	481.282333421	48.1282333421	0	0	1	1.04413594524	-13.5720289695	154	1	1.1	0.9	;
	34	2	1076.33037413	107.633766374	0	0	1	1.04494645413	-13.6491551164	345	1	1.05	0.95	;
	35	1	655.71406981	65.571406981	0	0	1	1.04150826572	-13.6042502799	154	1	1.1	0.9	;
	36	1	756.441095044	75.6441095044	0	0	1	1.04521608059	-13.2990414703	345	1	1.05	0.95	;
	37	1	927.381967986	92.7381967986	0	0	1	1.04337257048	-13.5030564614	345	1	1.05	0.95	;
	38	1	375.600282002	37.5600282002	0	0	1	1.04255794454	-12.687590403	345	1	1.05	0.95	;
	39	1	724.638692576	72.4638692576	0	0	1	1.0330983129	-14.929435859	154	1	1.1	0.9	;
	40	2	1083.30326509	109.842884628	0	0	1	1.04162236385	-12.5429158934	345	1	1.05	0.95	;
	41	1	198.472794724	19.8472794724	0	0	1	1.02574212785	-8.31191169957	154	1	1.1	0.9	;
	42	2	1211.28175436	121.128175436	0	0	1	1.02260453113	-12.0998983678	154	1	1.1	0.9	;
	43	2	631.294891617	63.1332259295	0	0	1	1.034562706	-14.3658493722	154	1	1.1	0.9	;
	44	1	194.766304598	19.4783822912	0	0	1	1.03991577486	-13.2992667678	345	1	1.05	0.95	;
	45	1	356.639588149	35.6639588149	0	0	1	1.04200073651	-12.7031755193	345	1	1.05	0.95	;
	46	2	1121.93712634	112.193712634	0	0	1	1.04220360788	-12.7306555237	345	1	1.05	0.95	;
	47	1	2841.68637452	284.169412152	0	0	1	1.03500268842	-13.80878811	345	1	1.05	0.95	;
	48	2	198.220814785	19.8220814785	0	0	1	1.04010286532	-12.3645005085	154	1	1.1	0.9	;
	49	1	405.545852995	40.5545852995	0	0	1	1.04561985575	-11.8678425915	154	1	1.1	0.9	;
	50	1	482.265127588	48.2265127588	0	0	1	1.04590635155	-11.4867259729	765	1	1.05	0.95	;
	51	1	1932.07543583	193.207543583	0	0	1	1.04999966837	-11.5182499329	345	1	1.05	0.95	;
	52	2	444.62728972	44.462728972	0	0	2	1.02302756754	-9.66823857484	154	1	1.1	0.9	;
	53	2	922.778120738	92.2778120738	0	0	2	1.03255422301	-8.33211515071	765	1	1.05	0.95	;
	54	1	396.479571378	39.6479571378	0	0	2	1.03937033154	-11.2222899551	345	1	1.05	0.95	;
	55	1	1154.07854661	115.40830325	0	0	2	1.03341575767	-10.6623968759	345	1	1.05	0.95	;
	56	1	160.343161529	16.0343161529	0	0	2	1.02927147546	-11.023509824	154	1	1.1	0.9	;
	57	1	1817.16637153	181.716976015	0	0	2	1.03374125614	-10.7805333329	345	1	1.05	0.95	;
	58	1	1360.2734294	136.028313958	0	0	2	1.03718877415	-6.96364353073	345	1	1.05	0.95	;
	59	2	123.465800246	12.3517886554	0	0	2	1.03992281026	-5.65893078219	345	1	1.05	0.95	;
	60	1	179.879933654	17.9879933654	0	0	2	1.0377640303	-9.10854353198	345	1	1.05	0.95	;
	61	1	861.164908884	86.1165477882	0	0	2	1.03919951031	-11.2150470365	154	1	1.1	0.9	;
	62	1	1013.59080473	101.359379026	0	0	2	1.04135660616	-10.8789789145	765	1	1.05	0.95	;
	63	1	140.427767824	14.0427767824	0	0	2	1.03687209023	-8.63708599285	765	1	1.05	0.95	;
	64	1	511.675386028	51.1675386028	0	0	2	1.04004709817	-9.83704025214	345	1	1.05	0.95	;
	65	1	69.7935281721	12.1684732504	0	0	3	1.01589650651	3.17410536062	154	1	1.1	0.9	;
	66	1	25.7228906393	3.51514909954	0	0	3	1.02999527878	-4.93722076043	154	1	1.1	0.9	;
	67	1	23.112643761	2.78504446973	0	0	3	1.02281699865	-2.22008602574	154	1	1.1	0.9	;
	68	1	10.6423766549	4.39712956847	0	0	3	1.01713319967	4.91311825138	345	1	1.05	0.95	;
	69	1	20.5060340751	4.57542709708	0	0	3	1.01941939732	-0.216055184897	154	1	1.1	0.9	;
	70	1	251.657563361	25.2356532243	0	0	3	1.02890099686	-4.76929789664	154	1	1.1	0.9	;
	71	2	284.601130539	28.4601130539	0	0	3	1.01693331212	6.92102149256	345	1	1.05	0.95	;
	72	1	99.362857983	9.9362857983	0	0	3	1.02432435876	-4.22542098014	154	1	1.1	0.9	;
	73	2	308.535021432	32.2677978281	0	0	3	1.02314217058	8.439521449	345	1	1.05	0.95	;
	74	1	-31.0101768567	9.17648663613	0	0	3	1.02505019731	-4.70190790872	154	1	1.1	0.9	;
	75	2	116.144863931	19.0440644565	0	0	3	1.02619611526	10.402054248	345	1	1.05	0.95	;
	76	1	45.1061045667	8.47774916414	0	0	3	1.01913434704	3.27369498633	154	1	1.1	0.9	;
	77	1	349.616805903	34.9616805903	0	0	3	1.02363588563	-6.57663474328	154	1	1.1	0.9	;
	78	1	-463.80758573	8.46164561867	0	0	3	1.03386844612	-0.513627247021	154	1	1.1	0.9	;
	79	1	154.24184385	15.424184385	0	0	3	1.021394126	0.472686035685	154	1	1.1	0.9	;
	80	1	-2106.57459934	4.09276242199	0	0	3	1.04597150969	4.73186738716	765	1	1.05	0.95	;
	81	1	223.384521399	22.3395855249	0	0	3	1.02340738986	-2.82325468623	345	1	1.05	0.95	;
	82	2	-188.574864284	9.71339216514	0	0	3	1.04999952382	7.55599363844	765	1	1.05	0.95	;
	83	1	255.431917026	25.5439883307	0	0	3	1.01839623072	-2.22052569742	154	1	1.1	0.9	;
	84	1	353.754320158	37.2611640639	0	0	3	1.02456094525	-8.95908899183	345	1	1.05	0.95	;
	85	1	240.580090539	24.0580090539	0	0	3	1.03247805246	0.457892010408	154	1	1.1	0.9	;
	86	1	235.590181352	23.5592770373	0	0	3	1.0341045236	0.0771977383574	345	1	1.05	0.95	;
	87	1	16.1819947408	5.38967709644	0	0	3	1.0347847925	-0.628220642606	345	1	1.05	0.95	;
	88	1	-1121.711125	1.51549278914	0	0	3	1.04473772558	8.40497622396	154	1	1.1	0.9	;
	89	1	81.7419929663	8.17498947588	0	0	3	1.02949786253	-3.11819139868	154	1	1.1	0.9	;
	90	1	154.292627189	16.3721213268	0	0	3	1.03425050121	-0.314761160237	154	1	1.1	0.9	;
	91	1	54.8060709824	5.48060709824	0	0	3	1.03732893652	-10.2180523352	154	1	1.1	0.9	;
	92	1	-110.650942501	2.78156164358	0	0	3	1.03614012666	0.593605742406	345	1	1.05	0.95	;
	93	1	108.432916206	10.8447386423	0	0	3	1.03098294931	-6.03677997426	154	1	1.1	0.9	;
	94	1	-399.856755073	4.00866773806	0	0	3	1.0415740736	4.26095384771	154	1	1.1	0.9	;
	95	1	61.6000438591	6.16000438591	0	0	3	1.03589542494	-1.11112613954	345	1	1.05	0.95	;
	96	1	159.36963559	15.936963559	0	0	4	1.04011979005	-8.81135578312	154	1	1.1	0.9	;
	97	1	49.5887829194	4.95887829194	0	0	4	1.04338379455	-6.95580367255	345	1	1.05	0.95	;
	98	1	250.945923257	25.5660148529	0	0	4	1.03779459238	-9.83435714384	154	1	1.1	0.9	;
	99	2	820.269278747	82.0269278747	0	0	4	1.03733800775	-9.87502086702	154	1	1.1	0.9	;
	100	2	192.228253965	19.2228253965	0	0	4	1.04616264323	-5.2697672086	345	1	1.05	0.95	;
	101	1	299.793493381	29.9793493381	0	0	4	1.04080682032	-9.05022996407	154	1	1.1	0.9	;
	102	1	88.2581455563	8.82581455563	0	0	4	1.04161022691	-8.51194684963	345	1	1.05	0.95	;
	103	1	92.524281761	9.2524281761	0	0	4	1.0429644199	-7.16301757929	154	1	1.1	0.9	;
	104	1	195.459969079	19.5459969079	0	0	4	1.04235761426	-7.95898234518	345	1	1.05	0.95	;
	105	1	131.030219478	13.1030219478	0	0	4	1.03890444965	-8.4913513058	154	1	1.1	0.9	;
	106	2	155.071857077	15.5071857077	0	0	4	1.04559792628	-6.06492868091	154	1	1.1	0.9	;
	107	1	-8.27056140058	2.94442178058	0	0	4	1.0397098708	-7.54708471642	345	1	1.05	0.95	;
	108	1	804.867946335	80.4867946335	0	0	4	1.04262357214	-6.91281628293	345	1	1.05	0.95	;
	109	1	421.483584079	42.1483584079	0	0	4	1.0421454083	-7.09471647817	345	1	1.05	0.95	;
	110	1	246.656499856	24.6656499856	0	0	4	1.03654299351	-8.47668537765	154	1	1.1	0.9	;
	111	1	156.198163955	15.6198163955	0	0	4	1.04239314344	-6.16926461873	345	1	1.05	0.95	;
	112	1	28.877045721	2.8877045721	0	0	4	1.03819076013	-8.14789177192	154	1	1.1	0.9	;
	113	1	613.824794568	61.3824794568	0	0	4	1.03625706566	-8.45057528001	154	1	1.1	0.9	;
	114	1	67.496789321	6.78979493347	0	0	4	1.04237056465	-6.44985273046	154	1	1.1	0.9	;
	115	1	29.6076427254	2.96076427254	0	0	4	1.03869334739	-7.96607761821	154	1	1.1	0.9	;
	116	1	41.796230926	4.1796230926	0	0	4	1.03950408497	-7.5169944569	154	1	1.1	0.9	;
	117	1	233.51420195	25.2371520705	0	0	4	1.04373231135	-6.27720732039	154	1	1.1	0.9	;
	118	1	91.6569783993	9.16569783993	0	0	4	1.04629014889	-2.56176216651	154	1	1.1	0.9	;
	119	1	92.3373242322	9.23373242322	0	0	4	1.04462954629	-5.64031719533	345	1	1.05	0.95	;
	120	1	37.860492554	3.7860492554	0	0	4	1.04581349123	-6.54440542524	154	1	1.1	0.9	;
	121	1	88.1081885299	8.81081885299	0	0	4	1.04499398155	-6.4749880305	154	1	1.1	0.9	;
	122	1	72.9623116421	7.29623116421	0	0	4	1.04364311469	-6.23282037823	154	1	1.1	0.9	;
	123	1	59.3424339483	5.93424339482	0	0	4	1.04469333944	-6.41056256923	154	1	1.1	0.9	;
	124	2	115.32470094	11.532470094	0	0	4	1.04999855065	-0.212990440283	345	1	1.05	0.95	;
	125	1	24.561454833	2.4561454833	0	0	4	1.04433526149	-6.57525664552	154	1	1.1	0.9	;
	126	1	409.17964989	40.917964989	0	0	4	1.04462234374	-5.78984682001	345	1	1.05	0.95	;
	127	1	322.431211721	32.2431211721	0	0	4	1.04305538217	-6.49659546478	154	1	1.1	0.9	;
	128	1	487.161792902	48.7161792902	0	0	4	1.03704896174	-8.72845648955	154	1	1.1	0.9	;
	129	1	57.6610471257	5.76610471257	0	0	4	1.04571565368	-8.08176812066	154	1	1.1	0.9	;
	130	1	42.9439753852	7.29429062905	0	0	4	1.04479431768	-6.47693624591	345	1	1.05	0.95	;
	131	1	186.927913894	18.6927913893	0	0	4	1.04163277993	-7.81066493629	154	1	1.1	0.9	;
	132	1	100.343697133	10.0343697133	0	0	4	1.04637499905	-7.89565137231	154	1	1.1	0.9	;
	133	1	275.379466906	30.0334019311	0	0	4	1.04114309066	-7.13492948452	345	1	1.05	0.95	;
	134	1	684.253404488	68.4253404488	0	0	4	1.04086504124	-6.75728708838	345	1	1.05	0.95	;
	135	1	144.61194112	14.5215821096	0	0	4	1.04589628597	-8.13960444013	154	1	1.1	0.9	;
	136	1	166.991232229	16.6991232229	0	0	4	1.04584954641	-7.28013603291	345	1	1.05	0.95	;
	137	2	1968.41103903	198.733847388	0	0	4	1.03872702159	-7.47731345961	345	1	1.05	0.95	;
	138	1	42.9450567012	4.29450567012	0	0	4	1.04438118824	-7.49016493416	154	1	1.1	0.9	;
	139	1	45.562172472	4.5562172472	0	0	4	1.04778338039	-7.89615109406	154	1	1.1	0.9	;
	140	1	29.327410171	5.26879189338	0	0	4	1.04631044261	-7.61910058365	154	1	1.1	0.9	;
	141	1	54.7660293428	5.47660293428	0	0	4	1.04728514699	-7.56998200245	154	1	1.1	0.9	;
	142	1	74.4153959517	7.44153959517	0	0	4	1.04326963761	-7.61088917211	154	1	1.1	0.9	;
	143	1	106.916515024	10.6994302114	0	0	4	1.04750717903	-7.62176108649	154	1	1.1	0.9	;
	144	1	48.9468204072	4.92184158553	0	0	4	1.04657633108	-8.19107877168	154	1	1.1	0.9	;
	145	1	82.3155126108	15.288716205	0	0	4	1.04305466353	-8.55734269966	154	1	1.1	0.9	;
	146	1	7.72024223671	4.47159398466	0	0	5	1.03100856114	-3.32677675661	154	1	1.1	0.9	;
	147	1	60.6147154115	6.06147154115	0	0	5	1.0366687262	-8.19695066209	154	1	1.1	0.9	;
	148	1	328.175050965	32.8175050965	0	0	5	1.0213360155	-8.09021436799	154	1	1.1	0.9	;
	149	1	1298.29477147	129.829477147	0	0	5	1.02658533988	-6.64116767923	345	1	1.05	0.95	;
	150	1	637.289307824	72.1979507741	0	0	5	1.03650104494	-1.7607146528	345	1	1.05	0.95	;
	151	1	516.283003672	61.0186508376	0	0	5	1.03777609052	-1.77769910236	345	1	1.05	0.95	;
	152	1	273.467454901	27.3467454901	0	0	5	1.03162089379	-5.40494024891	345	1	1.05	0.95	;
	153	1	214.291559417	21.4291559417	0	0	5	1.03239589166	-3.98129010437	154	1	1.1	0.9	;
	154	1	146.674510496	14.6675566944	0	0	5	1.02717679171	-6.55937374243	154	1	1.1	0.9	;
	155	1	410.981419524	41.1003101263	0	0	5	1.02888359412	-6.53034885349	154	1	1.1	0.9	;
	156	1	442.784288179	44.2784288179	0	0	5	1.03210779543	-5.23937035849	154	1	1.1	0.9	;
	157	1	208.447435054	20.8447435054	0	0	5	1.02929465771	-6.61743409753	154	1	1.1	0.9	;
	158	1	-96.8129276725	54.5326799904	0	0	5	1.03889517793	-1.25843491867	154	1	1.1	0.9	;
	159	1	379.27947873	37.927947873	0	0	5	1.03425834243	-4.29500511888	345	1	1.05	0.95	;
	160	1	1082.45288376	108.245288376	0	0	5	1.03291786011	-6.82210948836	154	1	1.1	0.9	;
	161	1	178.489627105	17.8489627105	0	0	5	1.03599057954	-4.79212782157	345	1	1.05	0.95	;
	162	1	64.4046240148	6.44046240148	0	0	5	1.03260308516	-5.88137006565	154	1	1.1	0.9	;
	163	1	67.7409687296	6.77409687295	0	0	5	1.03738318046	-3.04772135953	345	1	1.05	0.95	;
	164	1	52.2550375456	5.69692608244	0	0	5	1.03402106089	-5.48139819169	154	1	1.1	0.9	;
	165	1	1661.11006975	166.111626743	0	0	5	1.03888230541	-2.28775208497	345	1	1.05	0.95	;
	166	2	525.33549367	53.355253044	0	0	5	1.04999392023	0.581324991983	345	1	1.05	0.95	;
	167	2	2216.96839554	221.69763356	0	0	5	1.04907933859	0.321591703428	345	1	1.05	0.95	;
	168	1	141.183200782	14.1183200782	0	0	5	1.04235262965	-1.52117161129	765	1	1.05	0.95	;
	169	1	39.7878494482	3.97878494482	0	0	5	1.03249155987	-5.66308489766	154	1	1.1	0.9	;
	170	1	146.546901298	17.4835411146	0	0	5	1.0336683943	-2.53357140789	154	1	1.1	0.9	;
	171	1	15.9424904465	4.8942903308	0	0	5	1.03286473233	-4.42683240265	345	1	1.05	0.95	;
	172	1	434.128353677	51.617076605	0	0	5	1.03492046901	-1.0445360836	154	1	1.1	0.9	;
	173	1	37.4086640514	5.35626803224	0	0	5	1.03206689228	-4.37902350211	345	1	1.05	0.95	;
	174	1	388.403252322	38.8403252322	0	0	5	1.02615615363	-4.00479139721	345	1	1.05	0.95	;
	175	2	173.979376199	17.6101755151	0	0	5	1.04999822169	3.08247950509	765	1	1.05	0.95	;
	176	1	510.305353727	51.0305353727	0	0	5	1.02096800404	-3.13559902512	345	1	1.05	0.95	;
	177	1	652.469761838	65.2478082622	0	0	5	1.02192339545	-2.7874961214	345	1	1.05	0.95	;
	178	1	737.529817082	73.7533476276	0	0	5	1.01809342152	-4.02409826947	154	1	1.1	0.9	;
	179	1	393.661885369	39.3661885369	0	0	5	1.04410115052	1.35599496456	345	1	1.05	0.95	;
	180	1	368.190261622	36.8190261622	0	0	5	1.02036558516	-4.40146050494	154	1	1.1	0.9	;
	181	1	333.788193718	33.3788193718	0	0	5	1.04205217225	0.586468459771	345	1	1.05	0.95	;
	182	1	602.582934724	60.2598798694	0	0	5	1.0181758045	-3.99152842633	345	1	1.05	0.95	;
	183	1	272.592811624	27.2598051706	0	0	5	1.01903922116	-2.69312278	345	1	1.05	0.95	;
	184	1	538.591069839	53.8604004119	0	0	5	1.0438861549	1.32010233142	345	1	1.05	0.95	;
	185	1	307.803921131	30.7803921131	0	0	5	1.04166548224	0.612429204462	154	1	1.1	0.9	;
	186	2	460.888538909	46.092358536	0	0	5	1.04372224368	0.399510516937	345	1	1.05	0.95	;
	187	1	63.7029902217	6.37029902217	0	0	5	1.04369634855	0.391501887979	345	1	1.05	0.95	;
	188	1	58.1293782218	5.81799954637	0	0	5	1.03787746236	-5.3841199614	154	1	1.1	0.9	;
	189	1	104.31547544	10.6201868653	0	0	5	1.00700100135	-0.948387173672	154	1	1.1	0.9	;
	190	3	187.545448362	19.0566706942	0	0	5	1	0	345	1	1.05	0.95	;
	191	1	265.212917671	26.5228797046	0	0	5	1.0049197768	-1.30371221015	154	1	1.1	0.9	;
	192	2	132.475681719	13.2483448604	0	0	5	1.00749033956	-0.445042556338	154	1	1.1	0.9	;
	193	2	37.7896050944	3.77896050944	0	0	5	1.04210488021	-4.16915342042	345	1	1.05	0.95	;
];

% generator data
%	bus	Pg	Qg	Qmax	Qmin	Vg	mBase	status	Pmax	Pmin	Pc1	Pc2	Qc1min	Qc1max	Qc2min	Qc2max	ramp_agc	ramp_10	ramp_30	ramp_q	apf
mpc.gen = [
	3	0	0	362.5	-362.5	1.04430072128	100	0	725	377	0	0	0	0	0	0	0	120.8333333	362.5	362.5	0	;
	3	0	0	362.5	-362.5	1.04430072128	100	0	725	377	0	0	0	0	0	0	0	120.8333333	362.5	362.5	0	;
	3	0	0	437.1	-437.1	1.04430072128	100	0	874.2	454.584	0	0	0	0	0	0	0	145.7	437.1	437.1	0	;
	4	0	0	262.15	-262.15	1.0444433259	100	0	524.3	272.636	0	0	0	0	0	0	0	87.38333333	262.15	262.15	0	;
	4	0	0	429.2	-429.2	1.0444433259	100	0	858.4	446.368	0	0	0	0	0	0	0	143.0666667	429.2	429.2	0	;
	4	0	0	429.2	-429.2	1.0444433259	100	0	858.4	446.368	0	0	0	0	0	0	0	143.0666667	429.2	429.2	0	;
	8	0	0	423.8	-423.8	1.04186499409	100	0	847.6	440.752	0	0	0	0	0	0	0	141.2666667	423.8	423.8	0	;
	8	0	0	423.8	-423.8	1.04186499409	100	0	847.6	440.752	0	0	0	0	0	0	0	141.2666667	423.8	423.8	0	;
	8	0	0	257.75	-257.75	1.04186499409	100	0	515.5	268.06	0	0	0	0	0	0	0	85.91666667	257.75	257.75	0	;
	9	0	0	57.705	-57.705	1.04603710693	100	0	115.41	60.0132	0	0	0	0	0	0	0	19.235	57.705	57.705	0	;
	9	0	0	18.5	-18.5	1.04603710693	100	0	37	19.24	0	0	0	0	0	0	0	6.166666667	18.5	18.5	0	;
	10	0	0	300	-300	1.04249747085	100	0	600	312	0	0	0	0	0	0	0	100	300	300	0	;
	10	251.427248999	-34.488536658	150	-150	1.04249747085	100	1	300	156	0	0	0	0	0	0	0	50	150	150	0	;
	19	0	0	184.5865	-184.5865	1.04551330602	100	0	369.173	191.96996	0	0	0	0	0	0	0	61.52883333	184.5865	184.5865	0	;
	19	280.027642394	-184.419812361	184.5865	-184.5865	1.04551330602	100	1	369.173	191.96996	0	0	0	0	0	0	0	61.52883333	184.5865	184.5865	0	;
	20	189.193636369	-181.865190154	181.9055	-181.9055	1.0439143589	100	1	363.811	189.18172	0	0	0	0	0	0	0	60.63516667	181.9055	181.9055	0	;
	21	405.106577111	153.033940531	225	-225	1.04430462832	100	1	450	234	0	0	0	0	0	0	0	75	225	225	0	;
	21	0	0	225	-225	1.04430462832	100	0	450	234	0	0	0	0	0	0	0	75	225	225	0	;
	21	0	0	225	-225	1.04430462832	100	0	450	234	0	0	0	0	0	0	0	75	225	225	0	;
	21	0	0	225	-225	1.04430462832	100	0	450	234	0	0	0	0	0	0	0	75	225	225	0	;
	24	0	0	10.5	-10.5	1.04421300973	100	0	21	10.92	0	0	0	0	0	0	0	3.5	10.5	10.5	0	;
	26	0	0	0	0	1.044582529	100	0	0	0	0	0	0	0	0	0	0	0	0	0	0	;
	27	90.00679266	-4.28712575703	63.5	-63.5	1.04529901058	100	1	127	66.04	0	0	0	0	0	0	0	21.16666667	63.5	63.5	0	;
	27	146.696466636	-9.27547522312	93.65	-93.65	1.04529901058	100	1	187.3	97.396	0	0	0	0	0	0	0	31.21666667	93.65	93.65	0	;
	34	201.7121392	11.9948693607	112.5	-112.5	1.04494645413	100	1	225	117	0	0	0	0	0	0	0	37.5	112.5	112.5	0	;
	34	174.862083894	11.9948693607	112.5	-112.5	1.04494645413	100	1	225	117	0	0	0	0	0	0	0	37.5	112.5	112.5	0	;
	34	170.538596484	11.9948693607	112.5	-112.5	1.04494645413	100	1	225	117	0	0	0	0	0	0	0	37.5	112.5	112.5	0	;
	34	207.120715673	11.9948693607	112.5	-112.5	1.04494645413	100	1	225	117	0	0	0	0	0	0	0	37.5	112.5	112.5	0	;
	34	165.449669378	11.9948693607	112.5	-112.5	1.04494645413	100	1	225	117	0	0	0	0	0	0	0	37.5	112.5	112.5	0	;
	34	224.991073183	11.9948693607	112.5	-112.5	1.04494645413	100	1	225	117	0	0	0	0	0	0	0	37.5	112.5	112.5	0	;
	34	0	0	112.5	-112.5	1.04494645413	100	0	225	117	0	0	0	0	0	0	0	37.5	112.5	112.5	0	;
	34	147.151085474	11.9948693607	112.5	-112.5	1.04494645413	100	1	225	117	0	0	0	0	0	0	0	37.5	112.5	112.5	0	;
	34	0	0	251.7695	-251.7695	1.04494645413	100	0	503.539	261.84028	0	0	0	0	0	0	0	83.92316667	251.7695	251.7695	0	;
	34	0	0	254.454	-254.454	1.04494645413	100	0	508.908	264.63216	0	0	0	0	0	0	0	84.818	254.454	254.454	0	;
	34	0	0	225	-225	1.04494645413	100	0	450	234	0	0	0	0	0	0	0	75	225	225	0	;
	34	365.325765385	46.4606669995	225	-225	1.04494645413	100	1	450	234	0	0	0	0	0	0	0	75	225	225	0	;
	34	0	0	225	-225	1.04494645413	100	0	450	234	0	0	0	0	0	0	0	75	225	225	0	;
	34	0	0	287.3	-287.3	1.04494645413	100	0	574.6	298.792	0	0	0	0	0	0	0	95.76666667	287.3	287.3	0	;
	34	316.690041592	73.8880126878	287.3	-287.3	1.04494645413	100	1	574.6	298.792	0	0	0	0	0	0	0	95.76666667	287.3	287.3	0	;
	34	0	0	187.8	-187.8	1.04494645413	100	0	375.6	195.312	0	0	0	0	0	0	0	62.6	187.8	187.8	0	;
	34	0	0	187.8	-187.8	1.04494645413	100	0	375.6	195.312	0	0	0	0	0	0	0	62.6	187.8	187.8	0	;
	34	0	0	187.8	-187.8	1.04494645413	100	0	375.6	195.312	0	0	0	0	0	0	0	62.6	187.8	187.8	0	;
	36	0	0	0	0	1.04521608059	100	0	0	0	0	0	0	0	0	0	0	0	0	0	0	;
	36	0	0	174.137	-174.137	1.04521608059	100	0	348.274	181.10248	0	0	0	0	0	0	0	58.04566667	174.137	174.137	0	;
	36	0	0	206.3	-206.3	1.04521608059	100	0	412.6	214.552	0	0	0	0	0	0	0	68.76666667	206.3	206.3	0	;
	36	0	0	73.157	-73.157	1.04521608059	100	0	146.314	76.08328	0	0	0	0	0	0	0	24.38566667	73.157	73.157	0	;
	37	0	0	12	-12	1.04337257048	100	0	24	12.48	0	0	0	0	0	0	0	4	12	12	0	;
	39	0	0	240.845	-240.845	1.0330983129	100	0	481.69	250.4788	0	0	0	0	0	0	0	80.28166667	240.845	240.845	0	;
	39	0	0	240.845	-240.845	1.0330983129	100	0	481.69	250.4788	0	0	0	0	0	0	0	80.28166667	240.845	240.845	0	;
	40	0	0	30	-30	1.04162236385	100	0	60	31.2	0	0	0	0	0	0	0	10	30	30	0	;
	40	0	0	375.6	-375.6	1.04162236385	100	0	751.2	390.624	0	0	0	0	0	0	0	125.2	375.6	375.6	0	;
	40	799.999298232	4.14194069991	400	-400	1.04162236385	100	1	800	320	0	0	0	0	0	0	0	88	264	400	0	;
	40	799.999217601	4.14194069991	400	-400	1.04162236385	100	1	800	320	0	0	0	0	0	0	0	88	264	400	0	;
	40	869.999423014	4.89838836652	435	-435	1.04162236385	100	1	870	348	0	0	0	0	0	0	0	95.7	287.1	435	0	;
	40	869.999379517	4.89838836652	435	-435	1.04162236385	100	1	870	348	0	0	0	0	0	0	0	95.7	287.1	435	0	;
	40	869.999142721	4.89838836652	435	-435	1.04162236385	100	1	870	348	0	0	0	0	0	0	0	95.7	287.1	435	0	;
	40	869.999426746	4.89838836652	435	-435	1.04162236385	100	1	870	348	0	0	0	0	0	0	0	95.7	287.1	435	0	;
	43	96.5887051611	-72.1079602255	72.394	-72.394	1.034562706	100	1	144.788	75.28976	0	0	0	0	0	0	0	24.13133333	72.394	72.394	0	;
	43	0	0	0	0	1.034562706	100	0	0	0	0	0	0	0	0	0	0	0	0	0	0	;
	45	0	0	255.9	-255.9	1.04200073651	100	0	511.8	266.136	0	0	0	0	0	0	0	85.3	255.9	255.9	0	;
	47	0	0	0	0	1.03500268842	100	0	0	0	0	0	0	0	0	0	0	0	0	0	0	;
	47	0	0	0	0	1.03500268842	100	0	0	0	0	0	0	0	0	0	0	0	0	0	0	;
	47	0	0	0	0	1.03500268842	100	0	0	0	0	0	0	0	0	0	0	0	0	0	0	;
	47	0	0	0	0	1.03500268842	100	0	0	0	0	0	0	0	0	0	0	0	0	0	0	;
	47	0	0	434.25	-434.25	1.03500268842	100	0	868.5	451.62	0	0	0	0	0	0	0	144.75	434.25	434.25	0	;
	47	0	0	431.65	-431.65	1.03500268842	100	0	863.3	448.916	0	0	0	0	0	0	0	143.8833333	431.65	431.65	0	;
	48	0	0	218.05	-218.05	1.04010286532	100	0	436.1	226.772	0	0	0	0	0	0	0	72.68333333	218.05	218.05	0	;
	48	0	0	189.19	-189.19	1.04010286532	100	0	378.38	196.7576	0	0	0	0	0	0	0	63.06333333	189.19	189.19	0	;
	48	306.714235859	-189.146144129	189.19	-189.19	1.04010286532	100	1	378.38	196.7576	0	0	0	0	0	0	0	63.06333333	189.19	189.19	0	;
	49	0	0	384.915	-384.915	1.04561985575	100	0	769.83	400.3116	0	0	0	0	0	0	0	128.305	384.915	384.915	0	;
	53	0	0	250.375	-250.375	1.03255422301	100	0	500.75	260.39	0	0	0	0	0	0	0	83.45833333	250.375	250.375	0	;
	53	0	0	266.5	-266.5	1.03255422301	100	0	533	277.16	0	0	0	0	0	0	0	88.83333333	266.5	266.5	0	;
	53	0	0	191	-191	1.03255422301	100	0	382	198.64	0	0	0	0	0	0	0	63.66666667	191	191	0	;
	53	0	0	423	-423	1.03255422301	100	0	846	439.92	0	0	0	0	0	0	0	141	423	423	0	;
	53	0	0	0	0	1.03255422301	100	0	0	0	0	0	0	0	0	0	0	0	0	0	0	;
	53	0	0	0	0	1.03255422301	100	0	0	0	0	0	0	0	0	0	0	0	0	0	0	;
	53	499.999146459	-155.781289651	250	-250	1.03255422301	100	1	500	200	0	0	0	0	0	0	0	55	165	250	0	;
	53	499.99915431	-155.781289651	250	-250	1.03255422301	100	1	500	200	0	0	0	0	0	0	0	55	165	250	0	;
	53	499.998984743	-155.781289651	250	-250	1.03255422301	100	1	500	200	0	0	0	0	0	0	0	55	165	250	0	;
	53	499.999067714	-155.781289651	250	-250	1.03255422301	100	1	500	200	0	0	0	0	0	0	0	55	165	250	0	;
	53	499.999163929	-155.781289651	250	-250	1.03255422301	100	1	500	200	0	0	0	0	0	0	0	55	165	250	0	;
	53	499.999306364	-155.781289651	250	-250	1.03255422301	100	1	500	200	0	0	0	0	0	0	0	55	165	250	0	;
	53	1019.99933635	-401.838147445	510	-510	1.03255422301	100	1	1020	408	0	0	0	0	0	0	0	112.2	336.6	510	0	;
	53	1019.99898353	-401.838147445	510	-510	1.03255422301	100	1	1020	408	0	0	0	0	0	0	0	112.2	336.6	510	0	;
	57	0	0	50.85	-50.85	1.03374125614	100	0	101.7	52.884	0	0	0	0	0	0	0	16.95	50.85	50.85	0	;
	58	0	0	0	0	1.03718877415	100	0	0	0	0	0	0	0	0	0	0	0	0	0	0	;
	59	0	0	173.165	-173.165	1.03992281026	100	0	346.33	180.0916	0	0	0	0	0	0	0	57.72166667	173.165	173.165	0	;
	59	0	0	0	0	1.03992281026	100	0	0	0	0	0	0	0	0	0	0	0	0	0	0	;
	59	0	0	0	0	1.03992281026	100	0	0	0	0	0	0	0	0	0	0	0	0	0	0	;
	59	0	0	0	0	1.03992281026	100	0	0	0	0	0	0	0	0	0	0	0	0	0	0	;
	59	0	0	0	0	1.03992281026	100	0	0	0	0	0	0	0	0	0	0	0	0	0	0	;
	59	499.999204778	8.7511654783	250	-250	1.03992281026	100	1	500	200	0	0	0	0	0	0	0	55	165	250	0	;
	59	499.999136037	8.7511654783	250	-250	1.03992281026	100	1	500	200	0	0	0	0	0	0	0	55	165	250	0	;
	59	499.999160925	8.7511654783	250	-250	1.03992281026	100	1	500	200	0	0	0	0	0	0	0	55	165	250	0	;
	59	499.998667479	8.7511654783	250	-250	1.03992281026	100	1	500	200	0	0	0	0	0	0	0	55	165	250	0	;
	59	1049.9993285	38.4329143096	525	-525	1.03992281026	100	1	1050	420	0	0	0	0	0	0	0	115.5	346.5	525	0	;
	59	1049.99907018	38.4329143096	525	-525	1.03992281026	100	1	1050	420	0	0	0	0	0	0	0	115.5	346.5	525	0	;
	62	0	0	0	0	1.04135660616	100	0	0	0	0	0	0	0	0	0	0	0	0	0	0	;
	64	0	0	265.2205	-265.2205	1.04004709817	100	0	530.441	275.82932	0	0	0	0	0	0	0	88.40683333	265.2205	265.2205	0	;
	70	0	0	215.6	-215.6	1.02890099686	100	0	431.2	224.224	0	0	0	0	0	0	0	71.86666667	215.6	215.6	0	;
	71	1039.99925977	-234.769233	520	-520	1.01693331212	100	1	1040	416	0	0	0	0	0	0	0	114.4	343.2	520	0	;
	73	0	0	0	0	1.02314217058	100	0	0	0	0	0	0	0	0	0	0	0	0	0	0	;
	73	0	0	0	0	1.02314217058	100	0	0	0	0	0	0	0	0	0	0	0	0	0	0	;
	73	594.999083633	-16.3143513677	297.5	-297.5	1.02314217058	100	1	595	238	0	0	0	0	0	0	0	65.45	196.35	297.5	0	;
	73	594.999178767	-16.3143513677	297.5	-297.5	1.02314217058	100	1	595	238	0	0	0	0	0	0	0	65.45	196.35	297.5	0	;
	79	0	0	424	-424	1.021394126	100	0	848	440.96	0	0	0	0	0	0	0	141.3333333	424	424	0	;
	75	1004.11632481	-122.555750396	511	-511	1.02619611526	100	1	1022	408.8	0	0	0	0	0	0	0	112.42	337.26	511	0	;
	75	1021.99585823	-122.555750396	511	-511	1.02619611526	100	1	1022	408.8	0	0	0	0	0	0	0	112.42	337.26	511	0	;
	82	949.999821207	-75.088996636	475	-475	1.04999952382	100	1	950	902.5	0	0	0	0	0	0	0	28.5	85.5	475	0	;
	82	949.99982168	-75.088996636	475	-475	1.04999952382	100	1	950	902.5	0	0	0	0	0	0	0	28.5	85.5	475	0	;
	82	999.999820555	-82.9831223195	500	-500	1.04999952382	100	1	1000	950	0	0	0	0	0	0	0	30	90	500	0	;
	82	999.99982104	-82.9831223195	500	-500	1.04999952382	100	1	1000	950	0	0	0	0	0	0	0	30	90	500	0	;
	82	999.999820353	-82.9831223195	500	-500	1.04999952382	100	1	1000	950	0	0	0	0	0	0	0	30	90	500	0	;
	82	999.999821273	-82.9831223195	500	-500	1.04999952382	100	1	1000	950	0	0	0	0	0	0	0	30	90	500	0	;
	82	1399.99982071	-158.659727009	700	-700	1.04999952382	100	1	1400	1330	0	0	0	0	0	0	0	42	126	700	0	;
	87	0	0	180.8	-180.8	1.0347847925	100	0	361.6	188.032	0	0	0	0	0	0	0	60.26666667	180.8	180.8	0	;
	98	0	0	44	-44	1.03779459238	100	0	88	45.76	0	0	0	0	0	0	0	14.66666667	44	44	0	;
	99	35.4380303936	-23.6455200249	24.15	-24.15	1.03733800775	100	1	48.3	25.116	0	0	0	0	0	0	0	8.05	24.15	24.15	0	;
	100	0	0	225	-225	1.04616264323	100	0	450	234	0	0	0	0	0	0	0	75	225	225	0	;
	100	0	0	225	-225	1.04616264323	100	0	450	234	0	0	0	0	0	0	0	75	225	225	0	;
	100	0	0	225	-225	1.04616264323	100	0	450	234	0	0	0	0	0	0	0	75	225	225	0	;
	100	549.999108827	5.62324659904	275	-275	1.04616264323	100	1	550	220	0	0	0	0	0	0	0	60.5	181.5	275	0	;
	100	499.999055084	4.64764484016	250	-250	1.04616264323	100	1	500	200	0	0	0	0	0	0	0	55	165	250	0	;
	100	0	0	0	0	1.04616264323	100	0	0	0	0	0	0	0	0	0	0	0	0	0	0	;
	100	0	0	0	0	1.04616264323	100	0	0	0	0	0	0	0	0	0	0	0	0	0	0	;
	100	499.998982594	4.64764484016	250	-250	1.04616264323	100	1	500	200	0	0	0	0	0	0	0	55	165	250	0	;
	100	499.99903052	4.64764484016	250	-250	1.04616264323	100	1	500	200	0	0	0	0	0	0	0	55	165	250	0	;
	100	1019.02911707	19.2838497847	509.515	-509.515	1.04616264323	100	1	1019.03	407.612	0	0	0	0	0	0	0	112.0933	336.2799	509.515	0	;
	100	1019.02916661	19.2838497847	509.515	-509.515	1.04616264323	100	1	1019.03	407.612	0	0	0	0	0	0	0	112.0933	336.2799	509.515	0	;
	106	1017.99903321	91.4934737529	509	-509	1.04559792628	100	1	1018	407.2	0	0	0	0	0	0	0	111.98	335.94	509	0	;
	108	0	0	359.2	-359.2	1.04262357214	100	0	718.4	373.568	0	0	0	0	0	0	0	119.7333333	359.2	359.2	0	;
	124	949.99982982	-12.1011177051	475	-475	1.04999855065	100	1	950	902.5	0	0	0	0	0	0	0	28.5	85.5	475	0	;
	124	949.99982927	-12.1011177051	475	-475	1.04999855065	100	1	950	902.5	0	0	0	0	0	0	0	28.5	85.5	475	0	;
	124	999.999829577	-13.4075011267	500	-500	1.04999855065	100	1	1000	950	0	0	0	0	0	0	0	30	90	500	0	;
	124	999.999828994	-13.4075011267	500	-500	1.04999855065	100	1	1000	950	0	0	0	0	0	0	0	30	90	500	0	;
	124	999.999828999	-13.4075011267	500	-500	1.04999855065	100	1	1000	950	0	0	0	0	0	0	0	30	90	500	0	;
	124	999.999829891	-13.4075011267	500	-500	1.04999855065	100	1	1000	950	0	0	0	0	0	0	0	30	90	500	0	;
	128	0	0	57.623	-57.623	1.03704896174	100	0	115.246	59.92792	0	0	0	0	0	0	0	19.20766667	57.623	57.623	0	;
	134	0	0	262.75	-262.75	1.04086504124	100	0	525.5	273.26	0	0	0	0	0	0	0	87.58333333	262.75	262.75	0	;
	134	0	0	432.1	-432.1	1.04086504124	100	0	864.2	449.384	0	0	0	0	0	0	0	144.0333333	432.1	432.1	0	;
	134	0	0	247.3	-247.3	1.04086504124	100	0	494.6	257.192	0	0	0	0	0	0	0	82.43333333	247.3	247.3	0	;
	134	0	0	247.3	-247.3	1.04086504124	100	0	494.6	257.192	0	0	0	0	0	0	0	82.43333333	247.3	247.3	0	;
	137	339.99924533	23.3927767911	170	-170	1.03872702159	100	1	340	136	0	0	0	0	0	0	0	37.4	112.2	170	0	;
	137	328.59923589	21.8771963217	164.3	-164.3	1.03872702159	100	1	328.6	131.44	0	0	0	0	0	0	0	36.146	108.438	164.3	0	;
	156	0	0	185.35	-185.35	1.03210779543	100	0	370.7	192.764	0	0	0	0	0	0	0	61.78333333	185.35	185.35	0	;
	160	0	0	0	0	1.03291786011	100	0	0	0	0	0	0	0	0	0	0	0	0	0	0	;
	166	699.999829595	75.2411213962	350	-350	1.04999392023	100	1	700	665	0	0	0	0	0	0	0	21	63	350	0	;
	166	699.999829592	75.2411213962	350	-350	1.04999392023	100	1	700	665	0	0	0	0	0	0	0	21	63	350	0	;
	166	699.999829799	75.2411213962	350	-350	1.04999392023	100	1	700	665	0	0	0	0	0	0	0	21	63	350	0	;
	166	999.999829576	147.067706151	500	-500	1.04999392023	100	1	1000	950	0	0	0	0	0	0	0	30	90	500	0	;
	166	999.999829041	147.067706151	500	-500	1.04999392023	100	1	1000	950	0	0	0	0	0	0	0	30	90	500	0	;
	167	0	0	150	-150	1.04907933859	100	0	300	156	0	0	0	0	0	0	0	50	150	150	0	;
	167	0	0	225	-225	1.04907933859	100	0	450	234	0	0	0	0	0	0	0	75	225	225	0	;
	167	0	0	225	-225	1.04907933859	100	0	450	234	0	0	0	0	0	0	0	75	225	225	0	;
	167	0	0	435.95	-435.95	1.04907933859	100	0	871.9	453.388	0	0	0	0	0	0	0	145.3166667	435.95	435.95	0	;
	167	0	0	221.4	-221.4	1.04907933859	100	0	442.8	230.256	0	0	0	0	0	0	0	73.8	221.4	221.4	0	;
	172	0	0	22.918	-22.918	1.03492046901	100	0	45.836	23.83472	0	0	0	0	0	0	0	7.639333333	22.918	22.918	0	;
	175	649.999828236	21.2693997698	325	-325	1.04999822169	100	1	650	617.5	0	0	0	0	0	0	0	19.5	58.5	325	0	;
	175	949.999827926	45.2154406982	475	-475	1.04999822169	100	1	950	902.5	0	0	0	0	0	0	0	28.5	85.5	475	0	;
	175	949.9998277	45.2154406982	475	-475	1.04999822169	100	1	950	902.5	0	0	0	0	0	0	0	28.5	85.5	475	0	;
	175	999.999828672	50.0517039985	500	-500	1.04999822169	100	1	1000	950	0	0	0	0	0	0	0	30	90	500	0	;
	175	999.999828821	50.0517039985	500	-500	1.04999822169	100	1	1000	950	0	0	0	0	0	0	0	30	90	500	0	;
	175	1399.99982847	97.1842822409	700	-700	1.04999822169	100	1	1400	1330	0	0	0	0	0	0	0	42	126	700	0	;
	175	1399.99982848	97.1842822409	700	-700	1.04999822169	100	1	1400	1330	0	0	0	0	0	0	0	42	126	700	0	;
	180	0	0	13.15	-13.15	1.02036558516	100	0	26.3	13.676	0	0	0	0	0	0	0	4.383333333	13.15	13.15	0	;
	186	0	0	225	-225	1.04372224368	100	0	450	234	0	0	0	0	0	0	0	75	225	225	0	;
	186	234.004489109	223.511019361	225	-225	1.04372224368	100	1	450	234	0	0	0	0	0	0	0	75	225	225	0	;
	186	0	0	225	-225	1.04372224368	100	0	450	234	0	0	0	0	0	0	0	75	225	225	0	;
	186	0	0	225	-225	1.04372224368	100	0	450	234	0	0	0	0	0	0	0	75	225	225	0	;
	190	0	0	0	0	1	100	0	0	0	0	0	0	0	0	0	0	0	0	0	0	;
	190	0	0	0	0	1	100	0	0	0	0	0	0	0	0	0	0	0	0	0	0	;
	190	0	0	0	0	1	100	0	0	0	0	0	0	0	0	0	0	0	0	0	0	;
	190	0	0	0	0	1	100	0	0	0	0	0	0	0	0	0	0	0	0	0	0	;
	190	987.998889592	-437.60099369	520	-520	1	100	1	1040	416	0	0	0	0	0	0	0	114.4	343.2	520	0	;
	190	987.999053164	-437.60099369	520	-520	1	100	1	1040	416	0	0	0	0	0	0	0	114.4	343.2	520	0	;
	193	0	0	0	0	1.04210488021	100	0	0	0	0	0	0	0	0	0	0	0	0	0	0	;
	193	0	0	0	0	1.04210488021	100	0	0	0	0	0	0	0	0	0	0	0	0	0	0	;
	193	0	0	0	0	1.04210488021	100	0	0	0	0	0	0	0	0	0	0	0	0	0	0	;
	193	0	0	0	0	1.04210488021	100	0	0	0	0	0	0	0	0	0	0	0	0	0	0	;
	193	499.999020447	2.27230370076	250	-250	1.04210488021	100	1	500	200	0	0	0	0	0	0	0	55	165	250	0	;
	193	499.999097762	2.27230370076	250	-250	1.04210488021	100	1	500	200	0	0	0	0	0	0	0	55	165	250	0	;
	193	499.999019821	2.27230370076	250	-250	1.04210488021	100	1	500	200	0	0	0	0	0	0	0	55	165	250	0	;
	193	499.998717696	2.27230370076	250	-250	1.04210488021	100	1	500	200	0	0	0	0	0	0	0	55	165	250	0	;
	71	1039.99935898	-234.769233	520	-520	1.01693331212	100	1	1040	416	0	0	0	0	0	0	0	114.4	343.2	520	0	;
	60	0	0	247.5	-247.5	1.0377640303	100	0	495	257.4	0	0	0	0	0	0	0	82.5	247.5	247.5	0	;
	42	599.190992835	-94.8332596303	512.7	-512.7	1.02260453113	100	1	1025.4	533.208	0	0	0	0	0	0	0	170.9	512.7	512.7	0	;
	11	0	0	0	0	1.04259446073	100	0	0	0	0	0	0	0	0	0	0	0	0	0	0	;
	172	0	0	59.486	-59.486	1.03492046901	100	0	118.972	61.86544	0	0	0	0	0	0	0	19.8286666667	59.486	59.486	0	;
	82	1399.99982132	-158.659727009	700	-700	1.04999952382	100	1	1400	1330	0	0	0	0	0	0	0	42	126	700	0	;
	75	949.968388848	-128.974571301	525	-525	1.02619611526	100	1	1050	420	0	0	0	0	0	0	0	115.5	346.5	525	0	;
	64	0	0	298.5855	-298.5855	1.04004709817	100	0	597.171	310.52892	0	0	0	0	0	0	0	99.5285	298.5855	298.5855	0	;
	160	0	0	135	-135	1.03291786011	100	0	270	140.4	0	0	0	0	0	0	0	45	135	135	0	;
	192	526.253223063	46.0584287833	506	-506	1.00749033956	100	1	1012	526.24	0	0	0	0	0	0	0	168.666666667	506	506	0	;
	167	574.394296847	351.571357572	552.3	-552.3	1.04907933859	100	1	1104.6	574.392	0	0	0	0	0	0	0	184.1	552.3	552.3	0	;
	75	0	0	525	-525	1.02619611526	100	0	1050	546	0	0	0	0	0	0	0	175	525	525	0	;
	62	0	0	135	-135	1.04135660616	100	0	270	140.4	0	0	0	0	0	0	0	45	135	135	0	;
	52	291.750820913	-277.086354401	280.5	-280.5	1.02302756754	100	1	561	291.72	0	0	0	0	0	0	0	93.5	280.5	280.5	0	;
	11	0	0	247.73	-247.73	1.04259446073	100	0	495.46	257.6392	0	0	0	0	0	0	0	82.5766666667	247.73	247.73	0	;
	24	0	0	142.5	-142.5	1.04421300973	100	0	285	148.2	0	0	0	0	0	0	0	47.5	142.5	142.5	0	;
	26	322.743262323	-242.094642627	249	-249	1.044582529	100	1	498	258.96	0	0	0	0	0	0	0	83	249	249	0	;
...
];

% branch data
%	fbus	tbus	r	x	b	rateA	rateB	rateC	ratio	angle	status	angmin	angmax	Pf	Qf	Pt	Qt
mpc.branch = [
	1	2	0.001953667	0.017794207	0.057753945	904	904	904	0	0	1	-30	30	189.988607389	-53.4479928777	-189.288307621	53.5688390344	;
	1	3	0.002346024	0.021367842	0.069352749	904	904	904	0	0	1	-30	30	153.150431434	-48.1799813284	-152.596828351	45.7036214005	;
	1	66	0.002789894	0.025410654	0.082474341	904	904	904	0	0	1	-30	30	-410.409500183	94.9009280797	415.025521097	-61.6765169478	;
	2	3	0.000230027	0.002463512	0.207508013	2172	2172	2172	0	0	1	-30	30	-44.5759021624	-32.6563902798	44.5810610553	10.0946218002	;
	2	4	0.001097043	0.009991982	0.032430577	904	904	904	0	0	1	-30	30	79.3274946636	-17.9601070034	-79.2614781456	15.0261881978	;
	2	6	0.004587512	0.041783555	0.135615211	904	904	904	0	0	1	-30	30	73.2316952946	-11.0828437324	-73.0052669059	-1.6087601125	;
	3	4	0.000157872	0.001690763	0.142417379	2172	2172	2172	0	0	1	-30	30	536.3889505	-64.3839146038	-535.967811342	53.3605443053	;
	3	7	0.001539844	0.014025061	0.04552058	904	904	904	0	0	1	-30	30	75.1774676119	-19.7995116845	-75.0934335984	15.5945581116	;
	3	28	0.000668777	0.007162388	0.603306441	2172	2172	2172	0	0	1	-30	30	-876.447072212	-8.90445905119	881.161260199	-6.76250535957	;
	4	7	0.001330617	0.012119404	0.039335464	904	904	904	0	0	1	-30	30	12.3382362599	-13.1926216776	-12.3348907376	8.92750932865	;
	4	8	0.000413018	0.004423289	0.372585094	2172	2172	2172	0	0	1	-30	30	452.535881199	2.42730019625	-451.758558418	-34.6461015018	;
	5	16	0.00309813	0.028218105	0.091586372	904	904	904	0	0	1	-30	30	684.440751884	-47.4562598278	-670.950533211	160.358950561	;
	5	20	0.003233724	0.029453105	0.095594761	904	904	904	0	0	1	-30	30	627.757005403	-36.1304126075	-615.928844957	133.491686664	;
	5	66	0.002753227	0.025076687	0.081390398	904	904	904	0	0	1	-30	30	145.797174246	20.2728289498	-145.239765983	-23.9082977632	;
	5	70	0.001710666	0.015580931	0.050570403	904	904	904	0	0	1	-30	30	215.269175585	45.7489582236	-214.497934138	-44.1319997735	;
	6	8	0.001796592	0.016363559	0.053110546	904	904	904	0	0	1	-30	30	-16.3097464084	2.18144604236	16.3145693038	-7.90540416598	;
	6	11	0.001545809	0.014079394	0.045696926	904	904	904	0	0	1	-30	30	3.10916463179	-4.44117721511	-3.10897252806	-0.523302541094	;
	7	9	0.000740338	0.006743076	0.021885732	904	904	904	0	0	1	-30	30	109.454743595	-20.0854650966	-109.371195022	18.4527823563	;
	7	14	0.000255269	0.002733843	0.230278712	2172	2172	2172	0	0	1	-30	30	310.356100003	-38.4332581347	-310.129627921	15.6854853926	;
	7	28	0.000583767	0.00625196	0.526618746	2172	2172	2172	0	0	1	-30	30	-1174.34952062	46.5711368031	1181.74409737	-25.1927291382	;
	8	10	0.000160584	0.000184873	0.901984702	1416	1416	1416	0	0	1	-30	30	-589.564146958	107.162293152	590.114414192	-204.497126406	;
	8	11	0.000158062	0.001692798	0.142588761	2172	2172	2172	0	0	1	-30	30	184.927581539	-69.6192044524	-184.872208159	54.7236337745	;
	8	14	0.000269282	0.002883925	0.242920462	2172	2172	2172	0	0	1	-30	30	-348.472549039	-111.138348051	348.797598103	88.1582774223	;
	9	12	0.000119405	0.000137466	0.167672111	708	708	708	0	0	1	-30	30	219.037110745	-61.0692695861	-218.981816099	42.7895403135	;
	9	13	0.000176983	0.000203752	0.248523638	708	708	708	0	0	1	-30	30	-35.5042464532	-48.7633969078	35.5082856935	21.5714063663	;
	9	15	0.000297907	0.000342968	0.41832935	708	708	708	0	0	1	-30	30	-396.944026571	67.0531908585	397.395038228	-112.343920575	;
	10	14	0.00105221	0.00958364	0.031105236	904	904	904	0	0	1	-30	30	-90.6143153618	-24.270693391	90.6987479751	21.6493814779	;
	10	24	0.000243464	0.000280289	1.367512381	1416	1416	1416	0	0	1	-30	30	-959.946297133	123.091940869	962.09791993	-269.481028098	;
	11	21	0.00015784	0.00169041	0.142387631	2172	2172	2172	0	0	1	-30	30	-270.870886389	-87.3858605881	270.986637355	73.1225221834	;
	11	25	0.00110679	0.010080759	0.032718716	904	904	904	0	0	1	-30	30	-74.34070275	-8.99126407662	74.3975038943	5.94692241811	;
	12	14	0.000665432	0.00606083	0.019671394	904	904	904	0	0	1	-30	30	11.5737919042	3.45609845	-11.5728520424	-5.5985301706	;
	12	18	0.000258897	0.000298056	0.363549377	708	708	708	0	0	1	-30	30	-116.129871825	-78.5994283631	116.16995278	38.8627572835	;
	13	16	0.000661549	0.006025463	0.019556605	904	904	904	0	0	1	-30	30	-39.7729219521	-14.9969272153	39.7836560288	12.952135584	;
	13	17	0.000189196	0.000217813	0.265674267	708	708	708	0	0	1	-30	30	-257.447479785	-17.7842768025	257.562072584	-11.1739881127	;
	13	22	0.000821755	0.00748463	0.024292563	904	904	904	0	0	1	-30	30	-41.2095453238	-12.756795806	41.2232765927	10.2202195064	;
	14	18	9.94e-05	0.000114489	0.558582953	1416	1416	1416	0	0	1	-30	30	-788.529789341	-67.8768540435	789.096461222	7.42404994498	;
	14	19	2.7e-05	6.2e-05	1.344867636	1906	1906	1906	0	0	1	-30	30	12.0014995397	-68.6881549391	-12.0014582329	-78.3198097308	;
	14	23	0.000322118	0.000370841	0.45232683	708	708	708	0	0	1	-30	30	284.761077713	-20.7269396378	-284.522077849	-28.4001115999	;
	15	16	0.000110729	0.000127478	0.155489196	708	708	708	0	0	1	-30	30	-447.522694065	94.7814875944	447.735825616	-111.582537952	;
	16	17	1.61e-05	3.7e-05	7.216516162	5718	5718	5718	0	0	1	-30	30	4582.86775253	-734.702361857	-4579.76752824	-49.1480112039	;
	16	20	0.000640865	0.005837068	0.018945138	904	904	904	0	0	1	-30	30	-131.13493486	73.2119090073	131.267643061	-74.0742995067	;
	16	22	3.29e-05	7.57e-05	1.640782241	1906	1906	1906	0	0	1	-30	30	-807.917249784	138.025553674	808.128662228	-317.494620371	;
	16	28	0.000193401	0.002071259	0.697869898	4344	4344	4344	0	0	1	-30	30	-3791.02840081	313.190300847	3816.59142739	-116.155726454	;
	17	18	8.5e-06	1.95e-05	1.693948976	3812	3812	3812	0	0	1	-30	30	3808.29200992	8.93065473938	-3807.16586063	-191.852875437	;
	18	19	3.3e-05	3.8e-05	0.742	2832	2832	2832	0	0	1	-30	30	2394.54033074	74.924638322	-2392.80793413	-154.099475563	;
	18	30	0.000754369	0.006870878	0.022300533	904	904	904	0	0	1	-30	30	-29.1878484076	16.9867331942	29.1960031359	-19.3515501613	;
	19	23	4.24e-05	4.88e-05	0.952412124	2832	2832	2832	0	0	1	-30	30	2150.20676123	-23.0430620695	-2148.41307603	-78.9123991348	;
	20	22	0.000644357	0.005868869	0.019048354	904	904	904	0	0	1	-30	30	118.863910923	-74.0703268518	-118.748832898	73.0358962978	;
	21	25	0.000588113	0.0053566	0.017385701	904	904	904	0	0	1	-30	30	-54.2984375365	8.97534965364	54.3148679843	-10.7213735071	;
	21	34	9.49e-05	0.001016882	0.085654572	2172	2172	2172	0	0	1	-30	30	-536.198242363	-19.2107884751	536.44861209	12.546583294	;
	22	29	0.000157753	0.000181614	0.886083495	1416	1416	1416	0	0	1	-30	30	853.369046768	321.586815722	-852.124589703	-417.166425163	;
	22	36	0.000114952	0.001231098	0.103698609	2172	2172	2172	0	0	1	-30	30	56.6614063893	167.234761304	-56.6267041653	-178.214670132	;
	22	38	0.000222736	0.002385427	0.200930653	2172	2172	2172	0	0	1	-30	30	-444.038717514	241.503967659	444.568597452	-257.768621183	;
	22	46	0.000425686	0.004558955	0.384012537	2172	2172	2172	0	0	1	-30	30	-213.680084882	117.290312273	213.931570896	-156.512877619	;
	23	24	5.52e-05	0.000503	0.0147	2712	2712	2712	0	0	1	-30	30	841.214925784	-5.25087209849	-840.856959896	6.9092741182	;
	23	32	2.02e-05	4.64e-05	1.00675716	1906	1906	1906	0	0	1	-30	30	916.309192481	111.49107393	-916.148643836	-220.958079423	;
	23	33	0.000169968	0.000195677	0.238673524	708	708	708	0	0	1	-30	30	314.638100256	-23.4170740992	-314.483738399	-2.43814862529	;
	24	26	0.000118	0.000136	0.664	1416	1416	1416	0	0	1	-30	30	-601.961124086	202.779219593	602.415069082	-274.682939941	;
	25	26	0.00041452	0.003775492	0.012253963	904	904	904	0	0	1	-30	30	-39.0348220221	-9.55542837562	39.0409161344	8.27445051805	;
	25	34	0.000619848	0.00564564	0.018323828	904	904	904	0	0	1	-30	30	-44.8933773431	-11.5770807322	44.9054729742	9.68805621534	;
	26	32	0.000607908	0.005536893	0.01797087	904	904	904	0	0	1	-30	30	-48.5034641128	8.28088593657	48.5170488071	-10.1176658885	;
	26	34	4.5e-05	0.000103577	2.245327702	1906	1906	1906	0	0	1	-30	30	-972.123579704	-66.702001428	972.514599178	-177.482885103	;
	27	34	9.33e-05	0.000999417	0.336734	4344	4344	4344	0	0	1	-30	30	385.956018507	-16.872147486	-385.828819718	-18.5461500397	;
	28	38	0.001685665	0.015353221	0.049831335	904	904	904	0	0	1	-30	30	438.206531746	13.3994161741	-435.266577945	7.92290638062	;
	28	41	0.002015591	0.018358223	0.059584548	904	904	904	0	0	1	-30	30	-72.5262547879	144.085510764	73.0194678305	-146.01244869	;
	28	50	9.99e-05	0.00321	1.63	7290	7290	7290	0	0	1	-30	30	1381.72009216	28.7775206716	-1379.97741228	-151.789548683	;
	28	80	0.000122152	0.003924627	7.991861101	14580	14580	14580	0	0	1	-30	30	-6691.97663813	696.143763097	6743.0253407	66.2745020015	;
	29	30	8.04e-06	9.26e-06	0.04515506	1416	1416	1416	0	0	1	-30	30	666.326770245	61.8356885156	-666.293801319	-66.7321172456	;
	29	36	3.7e-05	8.52e-05	1.846241882	1906	1906	1906	0	0	1	-30	30	-384.955213359	272.329167547	385.05254464	-473.835046435	;
	30	31	0.00033011	0.003006676	0.009758648	904	904	904	0	0	1	-30	30	175.162670543	31.3047120027	-175.066917295	-31.4974317709	;
	31	33	0.000235829	0.000271499	0.331156608	708	708	708	0	0	1	-30	30	-152.229776343	11.8722904933	152.281866899	-47.9064688127	;
	31	36	0.00107165	0.0097607	0.031679912	904	904	904	0	0	1	-30	30	-59.0729416307	-9.48732364819	59.1078532817	6.34880138059	;
	32	33	6.05e-05	6.97e-05	0.1912274	1062	1062	1062	0	0	1	-30	30	376.8349182	24.0011188345	-376.75549393	-44.7624255148	;
	32	37	0.000239942	0.002569698	0.216452349	2172	2172	2172	0	0	1	-30	30	-37.5017140454	32.5476119845	37.5091351845	-56.05440593	;
	32	44	0.000338016	0.003620039	0.304925228	2172	2172	2172	0	0	1	-30	30	-123.051317546	123.880790619	123.159425637	-155.840133409	;
	34	37	6.47e-05	0.000692975	0.058371101	2172	2172	2172	0	0	1	-30	30	-375.698709792	269.730058653	375.826480619	-274.725582359	;
	35	37	0.000950447	0.008656772	0.028096937	904	904	904	0	0	1	-30	30	-24.3376768105	-21.2619341563	24.3462803147	18.2870497032	;
	35	40	0.001104834	0.01006295	0.032660912	904	904	904	0	0	1	-30	30	-197.237254269	20.5523301374	197.638562033	-20.4404209075	;
	36	38	0.000952048	0.00867136	0.028144286	904	904	904	0	0	1	-30	30	-128.955708583	45.3768378604	129.119808701	-46.9490836591	;
	36	43	0.001604892	0.014617531	0.047443535	904	904	904	0	0	1	-30	30	144.492208521	59.0027679494	-144.129769036	-60.8321655996	;
	36	44	0.000327256	0.003504805	0.295218756	2172	2172	2172	0	0	1	-30	30	14.7526639052	140.564215852	-14.678465945	-171.858404344	;
	36	46	0.000315296	0.00337672	0.284429868	2172	2172	2172	0	0	1	-30	30	-308.475572672	108.100971536	308.794319757	-135.671161647	;
	37	40	0.000119	0.00127	0.429	4344	4344	4344	0	0	1	-30	30	-1407.01041109	264.290914056	1409.26488098	-286.854399557	;
	38	42	0.001675214	0.015258027	0.049522368	904	904	904	0	0	1	-30	30	-55.9844801555	140.16152745	56.3473063736	-142.137554439	;
	38	45	0.001624604	0.014797065	0.048026242	904	904	904	0	0	1	-30	30	2.39915508618	1.05273658269	-2.39886852747	-6.26743961194	;
	38	46	0.001525585	0.013895192	0.045099066	904	904	904	0	0	1	-30	30	6.09613134273	-0.459476908786	-6.09555406781	-4.43553901488	;
	38	84	0.000977268	0.010466224	0.881597169	2172	2172	2172	0	0	1	-30	30	-639.341020024	212.658723638	643.626666669	-260.944161524	;
	39	44	0.000549539	0.00500526	0.064981493	1808	1808	1808	0	0	1	-30	30	-617.661023334	-67.6803439898	619.646588875	78.7837455944	;
	40	44	0.000186834	0.002000932	0.16854368	2172	2172	2172	0	0	1	-30	30	717.085652386	17.4563047337	-716.198956791	-26.2167483213	;
	40	47	0.000177428	0.001900194	0.160058219	2172	2172	2172	0	0	1	-30	30	1277.4263992	248.753928376	-1274.64948301	-236.270031474	;
	41	42	0.001299581	0.011836722	0.038417974	904	904	904	0	0	1	-30	30	583.518776014	-19.5376066841	-579.309302152	53.8481525498	;
	41	52	0.003101751	0.028251087	0.091693421	904	904	904	0	0	1	-30	30	88.0557052204	-3.59484657619	-87.8270768486	-3.94477852813	;
	41	77	0.002217352	0.020195883	0.065548969	904	904	904	0	0	1	-30	30	-154.14041854	26.5568441645	154.660108043	-28.7060231616	;
	42	46	0.00172419	0.015704108	0.050970195	904	904	904	0	0	1	-30	30	60.0194360296	-136.46678682	-59.6648561732	134.263148984	;
	42	84	0.004178797	0.038060939	0.123532864	904	904	904	0	0	1	-30	30	-149.148198754	8.79477439648	150.046435646	-13.5563518605	;
	43	44	0.000449352	0.004092749	0.013283673	904	904	904	0	0	1	-30	30	-497.670242915	-76.8306269032	498.734384485	85.0937953478	;
	44	48	0.001280818	0.011665829	0.037863315	904	904	904	0	0	1	-30	30	-149.504028731	13.9332098185	149.771779541	-15.5898760397	;
	44	57	0.000681396	0.007297531	0.614689901	2172	2172	2172	0	0	1	-30	30	-632.31422766	128.024312688	634.997321985	-165.369811485	;
	45	46	0.000111099	0.001189836	0.100222927	2172	2172	2172	0	0	1	-30	30	41.7531840965	-27.095559721	-41.7509204502	16.2358238402	;
	45	50	0.00040114	0.004296079	0.361869864	2172	2172	2172	0	0	1	-30	30	-542.136419344	-58.0363745489	543.227732753	30.2858592613	;
	46	48	0.001260894	0.011484355	0.037274311	904	904	904	0	0	1	-30	30	-57.5125032961	23.5470359912	57.5584910566	-27.1687142942	;
	46	50	0.000334595	0.003583402	0.301839233	2172	2172	2172	0	0	1	-30	30	-663.969583096	-54.917983526	665.332189178	36.6089316532	;
	47	49	0.001906713	0.017366547	0.056365905	904	904	904	0	0	1	-30	30	-215.024379086	-39.111388037	215.870523643	40.7178185748	;
	47	60	0.000752607	0.008060181	0.67892992	2172	2172	2172	0	0	1	-30	30	-1081.65378715	73.9893984466	1089.9591565	-57.9648858241	;
	48	49	0.001480551	0.013485018	0.043767781	904	904	904	0	0	1	-30	30	-73.6589406794	-36.5299385585	73.7491674035	32.5916919869	;
	48	51	0.001270961	0.011576049	0.037571917	904	904	904	0	0	1	-30	30	-147.212205188	-73.7628506305	147.527259245	72.5289549025	;
	49	51	0.000899122	0.008189302	0.0598043	1356	1356	1356	0	0	1	-30	30	-86.8652538427	-49.4045483185	86.9448109005	43.5631882863	;
	49	53	0.002230934	0.020319589	0.065950477	904	904	904	0	0	1	-30	30	-315.387743205	108.369793213	317.673276215	-94.6738773326	;
	50	51	0.000183433	0.001964511	0.165475847	2172	2172	2172	0	0	1	-30	30	10.3192354808	-227.93428046	-10.2387195569	210.623863208	;
	50	54	0.000298513	0.003196975	0.269289514	2172	2172	2172	0	0	1	-30	30	-135.751801485	212.137883225	135.94253947	-239.369751058	;
	50	62	4.12e-05	0.001322961	2.693994224	14580	14580	14580	0	0	1	-30	30	-861.066440602	243.789946973	861.403305876	-526.395230176	;
	51	55	0.001436718	0.01308578	0.042471992	904	904	904	0	0	1	-30	30	-107.846752648	143.49343665	108.27547065	-144.197788893	;
	51	57	0.00189377	0.017248658	0.055983277	904	904	904	0	0	1	-30	30	-69.2630196931	104.011994698	69.5424452069	-107.544278909	;
	52	54	0.001933006	0.017606027	0.057143176	904	904	904	0	0	1	-30	30	151.777572846	-112.395232468	-151.131026709	112.20722164	;
	52	56	0.001462649	0.013321963	0.04323856	904	904	904	0	0	1	-30	30	179.755801895	-67.7359217903	-179.244316236	67.8415993775	;
	52	84	0.001585688	0.014442614	0.046875812	904	904	904	0	0	1	-30	30	-89.8703059409	-2.89155878626	89.9926790092	-0.907167291565	;
	53	55	0.000288514	0.003089893	1.041078801	4344	4344	4344	0	0	1	-30	30	1391.98268036	-185.704631711	-1386.69345257	131.261411212	;
	53	58	0.000270064	0.002892303	0.243626177	2172	2172	2172	0	0	1	-30	30	-890.992904118	-84.6852030306	893.016820662	80.269235433	;
	53	63	2.79e-05	0.000896312	1.825192122	14580	14580	14580	0	0	1	-30	30	619.756935233	-612.317187561	-619.587011966	422.364486588	;
	54	55	0.002132132	0.019419691	0.063029714	904	904	904	0	0	1	-30	30	-49.9181001329	34.209932733	49.9952045924	-40.277800802	;
	54	61	0.001817125	0.016550571	0.053717525	904	904	904	0	0	1	-30	30	-0.69877836753	-1.75200281971	0.698808807912	-4.0498204621	;
	54	62	0.000345552	0.003700749	0.311723639	2172	2172	2172	0	0	1	-30	30	-178.84438974	-55.3985776325	178.951457291	22.8056056783	;
	55	57	0.000154208	0.001651521	0.139111914	2172	2172	2172	0	0	1	-30	30	130.346357025	-39.8291936182	-130.320307897	25.247060958	;
	55	64	0.003142511	0.028622331	0.092898352	904	904	904	0	0	1	-30	30	-56.002125884	-22.3649311753	56.1033252806	13.3017372769	;
	56	61	0.001408725	0.01283082	0.041644479	904	904	904	0	0	1	-30	30	18.9011593564	-83.8759158843	-18.8077153639	80.272438506	;
	57	60	0.001430752	0.01303144	0.042295623	904	904	904	0	0	1	-30	30	-240.417630857	-4.2703053604	241.191564377	6.78195150513	;
	57	97	0.000552148	0.005913329	0.498094995	2172	2172	2172	0	0	1	-30	30	-1218.01551042	-40.8253041051	1225.68200022	69.2046774495	;
	58	59	6.17e-05	0.00066	0.501	6516	6516	6516	0	0	1	-30	30	-3724.73921271	-66.025138552	3732.69730717	97.1143829002	;
	58	63	0.00017	0.00182	0.613	4344	4344	4344	0	0	1	-30	30	1714.67114157	-149.884805026	-1710.00337262	133.933399977	;
	60	63	0.000254942	0.002730347	0.229984176	2172	2172	2172	0	0	1	-30	30	-318.21616626	52.5643137085	318.465863402	-74.6371007506	;
	60	100	0.000568608	0.006089613	0.512943851	2172	2172	2172	0	0	1	-30	30	-1192.81448825	-19.3693727591	1200.326951	44.1349059647	;
	61	62	0.000190755	0.001737417	0.022556263	1808	1808	1808	0	0	1	-30	30	-374.868629079	-88.0109881416	375.130154792	87.9519996124	;
	62	63	6.31e-05	0.00202596	4.125535352	14580	14580	14580	0	0	1	-30	30	-2074.38973139	112.21769903	2076.9592535	-475.178028437	;
	62	64	0.00024797	0.002655684	0.223695124	2172	2172	2172	0	0	1	-30	30	-729.81610806	114.10855194	731.070491301	-124.902026716	;
	63	97	0.001705746	0.015536123	0.050424972	904	904	904	0	0	1	-30	30	-206.262499221	-20.5255341786	206.942535799	21.2640220366	;
	64	96	0.001229987	0.011202852	0.036360649	904	904	904	0	0	1	-30	30	-170.69907692	17.6472363864	171.034778333	-18.5230312369	;
	64	98	0.00145865	0.013285543	0.043120356	904	904	904	0	0	1	-30	30	1.5370471427	15.1326372612	-1.53290215702	-19.7491135011	;
	64	99	0.00122871	0.011191219	0.036322892	904	904	904	0	0	1	-30	30	9.04590622159	22.2211448986	-9.03833226941	-26.0709794499	;
	64	102	0.00020466	0.002191839	0.73849704	4344	4344	4344	0	0	1	-30	30	-1138.73307904	5.43173228965	1141.19038816	-59.1180116029	;
	65	68	0.001222283	0.011132689	0.036132921	904	904	904	0	0	1	-30	30	-279.075685239	21.7654353146	280.004693035	-17.0375543244	;
	65	69	0.003164497	0.028822584	0.093548306	904	904	904	0	0	1	-30	30	209.282157138	-33.9339085706	-207.913198247	36.7143847433	;
	66	67	0.001903714	0.01733923	0.056277244	904	904	904	0	0	1	-30	30	-279.226787691	77.1433612607	280.74109104	-69.2798589365	;
	66	70	0.001986687	0.018094956	0.058730073	904	904	904	0	0	1	-30	30	-16.2818580585	4.92630435926	16.2880334632	-11.094058462	;
	67	69	0.001285688	0.011710181	0.038007266	904	904	904	0	0	1	-30	30	-303.8537348	66.4948144675	305.046040304	-59.5981326257	;
	68	69	0.00309092	0.02815243	0.091373212	904	904	904	0	0	1	-30	30	326.057429129	-34.036686525	-322.855471419	53.7260818313	;
	68	71	0.000542799	0.0058132	0.489660838	2172	2172	2172	0	0	1	-30	30	-616.704498681	46.6771112699	618.727137264	-75.6637072569	;
	69	72	0.003845431	0.035024597	0.113677932	904	904	904	0	0	1	-30	30	205.216595408	-35.4177610597	-203.626022345	38.0343010405	;
	70	72	0.001924592	0.017529395	0.056894456	904	904	904	0	0	1	-30	30	-53.4476626507	29.9904050104	53.5193965442	-35.3333724618	;
	71	73	0.000429713	0.004602092	0.387646086	2172	2172	2172	0	0	1	-30	30	-605.907566147	-92.7273252643	607.454996646	68.9657655198	;
	71	78	0.005029715	0.045811184	0.148687523	904	904	904	0	0	1	-30	30	291.442312722	-57.985624098	-287.188191805	81.0978434237	;
	72	74	0.001850173	0.016851572	0.054694473	904	904	904	0	0	1	-30	30	50.7437679272	-12.6372143821	-50.696680606	7.32325772851	;
	73	75	0.000154736	0.001657168	0.139587554	2172	2172	2172	0	0	1	-30	30	-2165.0071496	43.4603699958	2171.93944072	16.1260396355	;
	73	76	0.003400257	0.030969904	0.100517777	904	904	904	0	0	1	-30	30	302.458250916	-11.5529506784	-299.485499908	28.1478208169	;
	73	79	0.005323371	0.048485836	0.157368535	904	904	904	0	0	1	-30	30	297.827748116	-16.4450291793	-293.313610134	41.1147536238	;
	73	80	0.003287737	0.029945065	0.097191498	904	904	904	0	0	1	-30	30	220.6990441	-99.8398406342	-218.887300844	105.937645881	;
	73	81	0.001180594	0.012643784	1.065018618	2172	2172	2172	0	0	1	-30	30	1618.03035206	-49.4848127547	-1588.50409281	254.184430001	;
	74	77	0.001050785	0.009570661	0.03106311	904	904	904	0	0	1	-30	30	356.67095639	-19.7756377178	-355.395453439	28.1336661772	;
	74	78	0.003080612	0.028058549	0.091068507	904	904	904	0	0	1	-30	30	-274.964098848	3.27589335792	277.182661799	7.27952476159	;
	75	82	0.000690812	0.007398375	0.623184303	2172	2172	2172	0	0	1	-30	30	687.996266319	-409.256174365	-683.961593441	385.30012504	;
	76	79	0.00216439	0.019713499	0.063983315	904	904	904	0	0	1	-30	30	254.379395439	-36.6255699896	-253.007828472	42.457669094	;
	77	81	0.002745828	0.0250093	0.081171682	904	904	904	0	0	1	-30	30	-269.866825361	35.2965945856	271.816266034	-26.0443944114	;
	78	81	0.002422622	0.022065501	0.071617111	904	904	904	0	0	1	-30	30	196.680357407	27.488649489	-195.781377198	-26.8786148902	;
	79	80	0.003522928	0.032087205	0.104144155	904	904	904	0	0	1	-30	30	-251.822010328	-46.8234262207	254.0212965	55.725382476	;
	79	81	0.001905365	0.017354266	0.056326045	904	904	904	0	0	1	-30	30	341.970996168	-42.3698360344	-339.806752048	56.1942146067	;
	79	83	0.001772751	0.016146406	0.052405742	904	904	904	0	0	1	-30	30	301.930609161	-9.80334484506	-300.380674616	18.4691301029	;
	80	82	3.61e-05	0.00115912	2.360357594	14580	14580	14580	0	0	1	-30	30	-4671.58473696	-232.030292757	4678.78928368	204.125298902	;
	81	84	0.00122041	0.011115623	0.144310127	1808	1808	1808	0	0	1	-30	30	1000.96237907	-74.0366673777	-989.236223858	165.708175416	;
	81	86	0.000662535	0.007095536	0.59767536	2172	2172	2172	0	0	1	-30	30	-760.709135963	-95.4496355979	764.395740545	71.6759675108	;
	82	85	0.004627741	0.042149964	0.136804449	904	904	904	0	0	1	-30	30	320.907784043	20.5850764755	-316.551915158	4.25555668888	;
	82	86	0.000927929	0.009937818	0.837088105	2172	2172	2172	0	0	1	-30	30	1433.98216701	80.8480080952	-1416.53934217	15.0566009196	;
	82	94	0.005001876	0.045557628	0.147864567	904	904	904	0	0	1	-30	30	138.873923399	-0.0109031892347	-137.995941234	-8.16410715933	;
	83	89	0.003668123	0.033409661	0.108436396	904	904	904	0	0	1	-30	30	44.9487576007	-44.0131184317	-44.82517544	33.7691797162	;
	85	86	0.000987046	0.00899012	0.029178874	904	904	904	0	0	1	-30	30	75.9718246487	-28.3135657423	-75.9117531857	25.7452993068	;
	86	87	0.000301405	0.003227955	0.271898989	2172	2172	2172	0	0	1	-30	30	402.819247963	-71.4312111037	-402.352781914	47.3316646331	;
	86	89	0.003643968	0.033189659	0.107722346	904	904	904	0	0	1	-30	30	178.766664141	-6.04670406406	-177.677684226	4.49692650017	;
	86	90	0.002477336	0.022563841	0.073234554	904	904	904	0	0	1	-30	30	31.9791084264	-7.98491461019	-31.9550335452	0.371586240286	;
	86	92	0.000752885	0.008063158	0.67918067	2172	2172	2172	0	0	1	-30	30	-121.099846632	-50.5743149433	121.204527444	-21.0773874166	;
	87	90	0.002118269	0.019293421	0.062619884	904	904	904	0	0	1	-30	30	-29.6661721267	2.85314879651	29.6843441898	-9.38938371302	;
	87	95	0.000515412	0.005519901	0.464955523	2172	2172	2172	0	0	1	-30	30	160.391922181	-60.0002534942	-160.262161456	11.5499984235	;
	88	92	0.001978682	0.018022046	0.058493431	904	904	904	0	0	1	-30	30	818.086760718	12.5634354831	-805.949484565	91.6520670002	;
	88	94	0.002833759	0.025810183	0.083771075	904	904	904	0	0	1	-30	30	303.624364254	-14.0789282682	-301.228582803	26.7841909799	;
	89	93	0.001483845	0.013515018	0.043865152	904	904	904	0	0	1	-30	30	394.988652342	-46.8170485605	-392.77666479	62.3082373219	;
	90	92	0.002453205	0.022344057	0.072521209	904	904	904	0	0	1	-30	30	-76.0109689758	-3.67716201238	76.1434757105	-2.88754428054	;
	91	147	0.00275034	0.025050396	0.081305066	904	904	904	0	0	1	-30	30	-149.007475677	17.389891577	149.587087634	-20.8539987388	;
	92	95	0.000460572	0.004932573	0.415483409	2172	2172	2172	0	0	1	-30	30	643.108948342	-67.5811523504	-641.325842631	42.0824226863	;
	93	102	0.004195747	0.038215319	0.124033929	904	904	904	0	0	1	-30	30	117.085968175	-45.4959139666	-116.485076226	37.6484175056	;
	93	149	0.002966654	0.027020609	0.087699707	904	904	904	0	0	1	-30	30	42.6695265125	7.65149251333	-42.6144795511	-16.4322702372	;
	94	150	0.00258422	0.023537359	0.076394262	904	904	904	0	0	1	-30	30	480.61768559	-9.15470649296	-475.114731875	51.0286456633	;
	95	146	0.001216475	0.011079788	0.035961223	904	904	904	0	0	1	-30	30	373.963399071	9.90799603352	-372.376444511	0.705397635971	;
	95	150	0.000858914	0.009198692	0.774829649	2172	2172	2172	0	0	1	-30	30	130.626683827	-59.8396786509	-130.487434676	-21.8629998582	;
...